
**** 03/10/23 11:46:39 ******* PSpice Lite (March 2016) ******* ID# 10813 ****

 ** Profile: "SCHEMATIC1-bias"  [ D:\Polytech\MA1 2022-2023 ULB\Q2\ELEC-H402 -- Analog Electronics\Labs\Labo 1 inverseur et filtre\La


 ****     CIRCUIT DESCRIPTION


******************************************************************************




** Creating circuit file "bias.cir" 
** WARNING: THIS AUTOMATICALLY GENERATED FILE MAY BE OVERWRITTEN BY SUBSEQUENT SIMULATIONS

*Libraries: 
* Profile Libraries :
* Local Libraries :
* From [PSPICE NETLIST] section of C:\Users\thoma\AppData\Roaming\SPB_Data\cdssetup\OrCAD_PSpice\17.2.0\PSpice.ini file:
.lib "nomd.lib" 

*Analysis directives: 
.AC DEC 100 1k 10Meg
.OPTIONS ADVCONV
.PROBE64 V(alias(*)) I(alias(*)) W(alias(*)) D(alias(*)) NOISE(alias(*)) 
.INC "..\SCHEMATIC1.net" 



**** INCLUDING SCHEMATIC1.net ****
* source R2C2_PASSIF
R_R1         0 OUT  {Rval}  
C_C1         N14549 OUT  {Cval}  
V_V1         IN 0 DC 0Vdc AC 1Vac 
R_R2         IN N14549  {Rval}  
C_C2         0 OUT  {Cval}  
.PARAM  amort=1 rval={1/(cval*wc)} cval=1nf wc={2*3.14159*fc} fc=100khz

**** RESUMING bias.cir ****
.END

**** 03/10/23 11:46:39 ******* PSpice Lite (March 2016) ******* ID# 10813 ****

 ** Profile: "SCHEMATIC1-bias"  [ D:\Polytech\MA1 2022-2023 ULB\Q2\ELEC-H402 -- Analog Electronics\Labs\Labo 1 inverseur et filtre\La


 ****     SMALL SIGNAL BIAS SOLUTION       TEMPERATURE =   27.000 DEG C


******************************************************************************



 NODE   VOLTAGE     NODE   VOLTAGE     NODE   VOLTAGE     NODE   VOLTAGE


(   IN)    0.0000  (  OUT)    0.0000  (N14549)    0.0000 




    VOLTAGE SOURCE CURRENTS
    NAME         CURRENT

    V_V1         0.000E+00

    TOTAL POWER DISSIPATION   0.00E+00  WATTS



          JOB CONCLUDED

**** 03/10/23 11:46:39 ******* PSpice Lite (March 2016) ******* ID# 10813 ****

 ** Profile: "SCHEMATIC1-bias"  [ D:\Polytech\MA1 2022-2023 ULB\Q2\ELEC-H402 -- Analog Electronics\Labs\Labo 1 inverseur et filtre\La


 ****     JOB STATISTICS SUMMARY


******************************************************************************



  Total job time (using Solver 1)   =        0.00
