
**** 04/16/14 08:32:53 ******** PSpice Lite (June 2009) ******* ID# 10813 ****

 ** Profile: "SCHEMATIC1-TRAN"  [ D:\PM\Documents PM\Cours\_Analogique\ELEC-H-402 2013-2014\Labos\Labo4 MOS2\Ampli Drain Commun\ampli


 ****     CIRCUIT DESCRIPTION


******************************************************************************




** Creating circuit file "TRAN.cir" 
** WARNING: THIS AUTOMATICALLY GENERATED FILE MAY BE OVERWRITTEN BY SUBSEQUENT SIMULATIONS

*Libraries: 
* Profile Libraries :
* Local Libraries :
.LIB "D:/pm/Documents PM/Cours/_Analogique/ELEC-H-402 2011-2012/Labos/Labo H402 PSpice Lib/small_signal.lib" 
* From [PSPICE NETLIST] section of C:\Program Files\CAO\OrCAD_16.3_Demo\tools\PSpice\PSpice.ini file:
.lib "nomd.lib" 

*Analysis directives: 
.TRAN  0 10m 0 10u 
.FOUR 1k 10 V([Vout]) 
.STEP LIN PARAM DeltaVin 1 2.5 .5 
.PROBE V(alias(*)) I(alias(*)) W(alias(*)) D(alias(*)) NOISE(alias(*)) 
.INC "..\SCHEMATIC1.net" 



**** INCLUDING SCHEMATIC1.net ****
* source AMPLIDRAINCOMMUN
V_V1         VDD 0 +5V
V_VGQ         N15987 0 4.14V
R_RS         0 N14721  {RSval} TC=0,0 
V_Vi         IN N15987  AC 1V
+SIN 0 {DeltaVin} 1kHz 0 0 0
C_CL         N14721 OUT  180u  TC=0,0 
R_RL         0 OUT  {RLval} TC=0,0 
X_M1         VDD IN N14721 BSS87_L1 PARAMS:    
.PARAM  dvin=1 rsval=10 deltavin=1v rlval=20meg

**** RESUMING TRAN.cir ****
.END

ERROR -- Node Vout is undefined
ERROR -- Node Vout is floating