
**** 03/17/23 09:38:32 ******* PSpice Lite (March 2016) ******* ID# 10813 ****

 ** Profile: "SCHEMATIC1-Ex2"  [ D:\Polytech\MA1 2022-2023 ULB\Q2\ELEC-H402 -- Analog Electronics\Labs\Labo 2\Caracteristique_du_NMOS


 ****     CIRCUIT DESCRIPTION


******************************************************************************




** Creating circuit file "Ex2.cir" 
** WARNING: THIS AUTOMATICALLY GENERATED FILE MAY BE OVERWRITTEN BY SUBSEQUENT SIMULATIONS

*Libraries: 
* Profile Libraries :
* Local Libraries :
.LIB "D:/Polytech/MA1 2022-2023 ULB/Q2/ELEC-H402 -- Analog Electronics/Labs/libraries for elec-h402/libraries for elec-h402/elec-h4"
+ "02.lib" 
.LIB "D:/Polytech/MA1 2022-2023 ULB/Q2/ELEC-H402 -- Analog Electronics/Labs/libraries for elec-h402/libraries for elec-h402/small_s"
+ "ignal.lib" 
.LIB "D:/Polytech/MA1 2022-2023 ULB/Q2/ELEC-H402 -- Analog Electronics/Labs/libraries for elec-h402/libraries for elec-h402/sedra_l"
+ "ib.lib" 
* From [PSPICE NETLIST] section of C:\Users\thoma\AppData\Roaming\SPB_Data\cdssetup\OrCAD_PSpice\17.2.0\PSpice.ini file:
.lib "nomd.lib" 

*Analysis directives: 
.DC LIN V_V1 0V 10V 0.01 
.STEP LIN V_V2 2 10 2 
.OPTIONS ADVCONV
.PROBE64 V(alias(*)) I(alias(*)) W(alias(*)) D(alias(*)) NOISE(alias(*)) 
.INC "..\SCHEMATIC1.net" 



**** INCLUDING SCHEMATIC1.net ****
* source CARACTERISTIQUE_DU_NMOS
V_V1         VDD 0 10Vdc
M_M1         VDD N14422 0 0 NMOS5P0  
+ L=5u  
+ W=12.5u  
+ AD=1.72E-12  
+ AS=1.72E-12  
+ PD=5.25E-6  
+ PS=5.25E-6      
+ M=1
V_V2         N14422 0 0Vdc

**** RESUMING Ex2.cir ****
.END

**** 03/17/23 09:38:32 ******* PSpice Lite (March 2016) ******* ID# 10813 ****

 ** Profile: "SCHEMATIC1-Ex2"  [ D:\Polytech\MA1 2022-2023 ULB\Q2\ELEC-H402 -- Analog Electronics\Labs\Labo 2\Caracteristique_du_NMOS


 ****     MOSFET MODEL PARAMETERS


******************************************************************************




               NMOS5P0         
               NMOS            
       LEVEL    1            
           L  100.000000E-06 
           W  100.000000E-06 
          LD  700.000000E-09 
         VTO    1            
          KP   30.468920E-06 
       GAMMA    1.4          
         PHI     .7          
      LAMBDA     .01         
          IS   10.000000E-15 
          JS    1.000000E-06 
          PB     .7          
        PBSW     .7          
          CJ  400.000000E-06 
        CJSW  800.000000E-12 
        MJSW     .5          
        CGSO  400.000000E-12 
        CGDO  400.000000E-12 
        CGBO  200.000000E-12 
         TOX   85.000000E-09 
          XJ    0            
          UO  750            
       UCRIT   10.000000E+03 
      DIOMOD    1            
         VFB    0            
        LETA    0            
        WETA    0            
          U0    0            
        TEMP    0            
         VDD    5            
       XPART    0            



          JOB CONCLUDED

**** 03/17/23 09:38:32 ******* PSpice Lite (March 2016) ******* ID# 10813 ****

 ** Profile: "SCHEMATIC1-Ex2"  [ D:\Polytech\MA1 2022-2023 ULB\Q2\ELEC-H402 -- Analog Electronics\Labs\Labo 2\Caracteristique_du_NMOS


 ****     JOB STATISTICS SUMMARY

 ****     CURRENT STEP                     V_V2 =   10    


******************************************************************************



  Total job time (using Solver 1)   =         .14
