
**** 03/10/23 11:00:46 ******* PSpice Lite (March 2016) ******* ID# 10813 ****

 ** Profile: "SCHEMATIC1-FiltreRLC"  [ D:\Polytech\MA1 2022-2023 ULB\Q2\ELEC-H402 -- Analog Electronics\Labs\Labo 1 inverseur et filt


 ****     CIRCUIT DESCRIPTION


******************************************************************************




** Creating circuit file "FiltreRLC.cir" 
** WARNING: THIS AUTOMATICALLY GENERATED FILE MAY BE OVERWRITTEN BY SUBSEQUENT SIMULATIONS

*Libraries: 
* Profile Libraries :
* Local Libraries :
* From [PSPICE NETLIST] section of C:\Users\thoma\AppData\Roaming\SPB_Data\cdssetup\OrCAD_PSpice\17.2.0\PSpice.ini file:
.lib "nomd.lib" 

*Analysis directives: 
.AC DEC 1000 1k 10Meg
.STEP DEC PARAM amort 0.0001 1 1 
.OPTIONS ADVCONV
.PROBE64 V(alias(*)) I(alias(*)) W(alias(*)) D(alias(*)) NOISE(alias(*)) 
.INC "..\SCHEMATIC1.net" 



**** INCLUDING SCHEMATIC1.net ****
* source FILTRAGERLC
C_C1         N14424 N14397  {Cval}  TC=0,0 
L_L1         N14397 N14405  {Lval}  
R_R3         0 N14405  {Rval} TC=0,0 
V_V1         N14424 N14565 DC 0Vdc AC 1Vac 
.PARAM  amort=1 rval={2*amort*sqrt(lval/cval)} lval={1/(cval*wc**2)} cval=1nf
+  wc={2*3.14159*fc} fc=100khz

**** RESUMING FiltreRLC.cir ****
.END

ERROR(ORPSIM-15142): Node N14424 is floating

ERROR(ORPSIM-15142): Node N14565 is floating
