
**** 04/04/14 07:57:34 ******** PSpice Lite (June 2009) ******* ID# 10813 ****

 ** Profile: "SCHEMATIC1-Xfert"  [ D:\PM\Documents PM\Cours\_Analogique\ELEC-H-402 2013-2014\Labos\Labo4 MOS2\Ampli Drain Commun\ampl


 ****     CIRCUIT DESCRIPTION


******************************************************************************




** Creating circuit file "Xfert.cir" 
** WARNING: THIS AUTOMATICALLY GENERATED FILE MAY BE OVERWRITTEN BY SUBSEQUENT SIMULATIONS

*Libraries: 
* Profile Libraries :
* Local Libraries :
.LIB "D:/pm/Documents PM/Cours/_Analogique/ELEC-H-402 2011-2012/Labos/Labo H402 PSpice Lib/small_signal.lib" 
* From [PSPICE NETLIST] section of C:\Program Files\CAO\OrCAD_16.3_Demo\tools\PSpice\PSpice.ini file:
.lib "nomd.lib" 

*Analysis directives: 
.DC LIN V_VGQ 0 5 .01 
.STEP PARAM RSval LIST 1u,10 
.PROBE V(alias(*)) I(alias(*)) W(alias(*)) D(alias(*)) NOISE(alias(*)) 
.INC "..\SCHEMATIC1.net" 



**** INCLUDING SCHEMATIC1.net ****
* source AMPLIDRAINCOMMUN
V_V1         VDD 0 +5V
V_VGQ         N15987 0 4.14V
R_RS         0 N14721  {RSval} TC=0,0 
V_Vi         VIN N15987  AC 1V
+SIN 0 {DeltaVin} 1kHz 0 0 0
C_CL         N14721 VOUT  180u  TC=0,0 
R_RL         0 VOUT  {RLval} TC=0,0 
X_M1         VDD VIN N14721 BSS87_L1 PARAMS:    
.PARAM  dvin=1 rsval=10 deltavin=0 rlval=20

**** RESUMING Xfert.cir ****
.END

WARNING -- Library file "D:\pm\Documents PM\Cours\_Analogique\ELEC-H-402 2011-2012\Labos\Labo H402 PSpice Lib\small_signal.lib" has changed since index file small_signal.ind was created.
WARNING -- The timestamp changed from Sun Nov 20 10:59:08 2011 to Sun Nov 20 11:59:08 2011.
Making new index file small_signal.ind for library file small_signal.lib
Index has 160 entries from 1 file(s).


          JOB CONCLUDED

**** 04/04/14 07:57:34 ******** PSpice Lite (June 2009) ******* ID# 10813 ****

 ** Profile: "SCHEMATIC1-Xfert"  [ D:\PM\Documents PM\Cours\_Analogique\ELEC-H-402 2013-2014\Labos\Labo4 MOS2\Ampli Drain Commun\ampl


 ****     JOB STATISTICS SUMMARY

 ****     CURRENT STEP                     PARAM RSVAL =   10    


******************************************************************************



  Total job time (using Solver 1)   =         .55
