
**** 05/12/23 10:42:46 ******* PSpice Lite (March 2016) ******* ID# 10813 ****

 ** Profile: "SCHEMATIC1-Time"  [ D:\Polytech\MA1 2022-2023 ULB\Q2\ELEC-H402 -- Analog Electronics\Labs\Revision\Labo 3 Ampli Drain C


 ****     CIRCUIT DESCRIPTION


******************************************************************************




** Creating circuit file "Time.cir" 
** WARNING: THIS AUTOMATICALLY GENERATED FILE MAY BE OVERWRITTEN BY SUBSEQUENT SIMULATIONS

*Libraries: 
* Profile Libraries :
* Local Libraries :
.LIB "D:/Polytech/MA1 2022-2023 ULB/Q2/ELEC-H402 -- Analog Electronics/Labs/Libraries for ELEC-H402/Libraries for ELEC-H402/SEDRA_L"
+ "IB.lib" 
.LIB "D:/Polytech/MA1 2022-2023 ULB/Q2/ELEC-H402 -- Analog Electronics/Labs/Libraries for ELEC-H402/Libraries for ELEC-H402/ALD.lib"
+ "" 
.LIB "D:/Polytech/MA1 2022-2023 ULB/Q2/ELEC-H402 -- Analog Electronics/Labs/Libraries for ELEC-H402/Libraries for ELEC-H402/ELEC-H4"
+ "02.lib" 
.LIB "D:/Polytech/MA1 2022-2023 ULB/Q2/ELEC-H402 -- Analog Electronics/Labs/Libraries for ELEC-H402/Libraries for ELEC-H402/SMALL_S"
+ "IGNAL.lib" 
* From [PSPICE NETLIST] section of C:\Users\thoma\AppData\Roaming\SPB_Data\cdssetup\OrCAD_PSpice\17.2.0\PSpice.ini file:

*Analysis directives: 
.DC LIN V_VGQ 0 10 .1 
+ LIN PARAM RSval 0.001 10 9.999 
.OPTIONS ADVCONV
.PROBE64 V(alias(*)) I(alias(*)) W(alias(*)) D(alias(*)) NOISE(alias(*)) 
.INC "..\SCHEMATIC1.net" 



**** INCLUDING SCHEMATIC1.net ****
* source AMPLIDRAINCOMMUN
V_V1         VDD 0 +5V
V_VGQ         N15987 0 4.14V
R_RS         0 OUT  {RSval} TC=0,0 
V_Vi         IN N15987  AC 1V
+SIN 0 {DeltaVin} 1kHz 0 0 0
C_CL         OUT N16140  180u  TC=0,0 
R_RL         0 N16140  {RLval} TC=0,0 
X_M1         VDD IN OUT BSS87_L1 PARAMS:    
.PARAM  rlval=20 deltavin=2.5v rsval=10 dvin=1

**** RESUMING Time.cir ****
.END


          JOB CONCLUDED

**** 05/12/23 10:42:46 ******* PSpice Lite (March 2016) ******* ID# 10813 ****

 ** Profile: "SCHEMATIC1-Time"  [ D:\Polytech\MA1 2022-2023 ULB\Q2\ELEC-H402 -- Analog Electronics\Labs\Revision\Labo 3 Ampli Drain C


 ****     JOB STATISTICS SUMMARY


******************************************************************************



  Total job time (using Solver 1)   =         .03
