
**** 05/05/23 09:36:27 ******* PSpice Lite (March 2016) ******* ID# 10813 ****

 ** Profile: "SCHEMATIC1-AC"  [ D:\Polytech\MA1 2022-2023 ULB\Q2\ELEC-H402 -- Analog Electronics\Labs\Labo 5\Ampli Op 2 Etages\ampli 


 ****     CIRCUIT DESCRIPTION


******************************************************************************




** Creating circuit file "AC.cir" 
** WARNING: THIS AUTOMATICALLY GENERATED FILE MAY BE OVERWRITTEN BY SUBSEQUENT SIMULATIONS

*Libraries: 
* Profile Libraries :
* Local Libraries :
.LIB "D:/Polytech/MA1 2022-2023 ULB/Q2/ELEC-H402 -- Analog Electronics/Labs/Labo 5/lib/ald.lib" 
* From [PSPICE NETLIST] section of C:\Users\thoma\AppData\Roaming\SPB_Data\cdssetup\OrCAD_PSpice\17.2.0\PSpice.ini file:

*Analysis directives: 
.AC DEC 100 10 100M
---------------$
ERROR(ORPSIM-16103): Invalid value
.OPTIONS ADVCONV
.PROBE64 V(alias(*)) I(alias(*)) W(alias(*)) D(alias(*)) NOISE(alias(*)) 
.INC "..\SCHEMATIC1.net" 



**** INCLUDING SCHEMATIC1.net ****
* source AMPLI OP 2 ETAGES
V_VDD         VDD 0 5
V_VSS         0 VSS 5
M_M1         N00263 N00263 VSS VSS ncg  
+ L=7.8E-6  
+ W=0.069E-3  
+ AD=0.161E-8  
+ AS=0.603E-8   
+ PS=0.478E-3  
+ NRD=0.3  
+ NRS=1  
+ NRG=25  
+ NRB=35 
M_M2         N00555 N00263 VSS VSS ncg  
+ L=7.8E-6  
+ W=0.069E-3  
+ AD=0.161E-8  
+ AS=0.603E-8   
+ PS=0.478E-3  
+ NRD=0.3  
+ NRS=1  
+ NRG=25  
+ NRB=35 
R_R1         N00263 VDD  15k TC=0,0 
M_M3         N01628 IN- N00555 N00555 ncg  
+ L=7.8E-6  
+ W=0.069E-3  
+ AD=0.161E-8  
+ AS=0.603E-8   
+ PS=0.478E-3  
+ NRD=0.3  
+ NRS=1  
+ NRG=25  
+ NRB=35 
M_M4         OUT1 IN+ N00555 N00555 ncg  
+ L=7.8E-6  
+ W=0.069E-3  
+ AD=0.161E-8  
+ AS=0.603E-8   
+ PS=0.478E-3  
+ NRD=0.3  
+ NRS=1  
+ NRG=25  
+ NRB=35 
M_M5         N01628 N01628 VDD VDD pcg  
+ L=7.8E-6  
+ W=0.138E-3  
+ AD=0.161E-8  
+ AS=0.603E-8   
+ PS=0.478E-6  
+ NRD=0.3  
+ NRS=1  
+ NRG=25  
+ NRB=35 
M_M6         OUT1 N01628 VDD VDD pcg  
+ L=7.8E-6  
+ W=0.138E-3  
+ AD=0.161E-8  
+ AS=0.603E-8   
+ PS=0.478E-6  
+ NRD=0.3  
+ NRS=1  
+ NRG=25  
+ NRB=35 
M_M7         OUT2 N28334 VSS VSS ncg  
+ L=7.8E-6  
+ W=0.069E-3  
+ AD=0.161E-8  
+ AS=0.603E-8   
+ PS=0.478E-3  
+ NRD=0.3  
+ NRS=1  
+ NRG=25  
+ NRB=35 
M_M8         OUT2 OUT1 VDD VDD pcg  
+ L=7.8E-6  
+ W={0.138E-3}  
+ AD=0.161E-8  
+ AS=0.603E-8   
+ PS=0.478E-6  
+ NRD=0.3  
+ NRS=1  
+ NRG=25  
+ NRB=35 
R_R2         N28334 VDD  33.6k TC=0,0 
M_M9         N28334 N28334 VSS VSS ncg  
+ L=7.8E-6  
+ W=0.069E-3  
+ AD=0.161E-8  
+ AS=0.603E-8   
+ PS=0.478E-3  
+ NRD=0.3  
+ NRS=1  
+ NRG=25  
+ NRB=35 
V_Vd         IN+ IN- DC 0Vdc AC 1Vac 
V_Vcm         IN- 0 DC 0Vdc AC 0Vac 
R_RL         0 OUT2  {RL} TC=0,0 
.PARAM  rl=1meg

**** RESUMING AC.cir ****
.END
