
**** 04/21/23 10:23:12 ******* PSpice Lite (March 2016) ******* ID# 10813 ****

 ** Profile: "SCHEMATIC1-bias"  [ D:\Polytech\MA1 2022-2023 ULB\Q2\ELEC-H402 -- Analog Electronics\Labs\Labo 4 - projets\miroir\miroi


 ****     CIRCUIT DESCRIPTION


******************************************************************************




** Creating circuit file "bias.cir" 
** WARNING: THIS AUTOMATICALLY GENERATED FILE MAY BE OVERWRITTEN BY SUBSEQUENT SIMULATIONS

*Libraries: 
* Profile Libraries :
* Local Libraries :
.LIB "D:/Polytech/MA1 2022-2023 ULB/Q2/ELEC-H402 -- Analog Electronics/Labs/Libraries for ELEC-H402/Libraries for ELEC-H402/SMALL_S"
+ "IGNAL.lib" 
.LIB "D:/Polytech/MA1 2022-2023 ULB/Q2/ELEC-H402 -- Analog Electronics/Labs/Libraries for ELEC-H402/Libraries for ELEC-H402/SEDRA_L"
+ "IB.lib" 
.LIB "D:/Polytech/MA1 2022-2023 ULB/Q2/ELEC-H402 -- Analog Electronics/Labs/Libraries for ELEC-H402/Libraries for ELEC-H402/ELEC-H4"
+ "02.lib" 
* From [PSPICE NETLIST] section of C:\Users\thoma\AppData\Roaming\SPB_Data\cdssetup\OrCAD_PSpice\17.2.0\PSpice.ini file:
.lib "nomd.lib" 

*Analysis directives: 
.DC LIN PARAM RD1 1k 20k 100 
.OPTIONS ADVCONV
.PROBE64 V(alias(*)) I(alias(*)) W(alias(*)) D(alias(*)) NOISE(alias(*)) 
.INC "..\SCHEMATIC1.net" 



**** INCLUDING SCHEMATIC1.net ****
* source MIROIR
V_VDD         VDD 0 5
V_VSS         0 VSS 5
R_R1         N00263 VDD  {RD1} TC=0,0 
V_VD2         N00555 0 5
M_M1         N00555 N00263 VSS VSS ncg  
+ L=7.8E-6  
+ W=0.069E-3  
+ AD=0.161E-8  
+ AS=0.603E-8   
+ PS=0.478E-3  
+ NRD=0.3  
+ NRS=1  
+ NRG=25  
+ NRB=35 
M_M2         N00263 N00263 VSS VSS ncg  
+ L=7.8E-6  
+ W=0.069E-3  
+ AD=0.161E-8  
+ AS=0.603E-8   
+ PS=0.478E-3  
+ NRD=0.3  
+ NRS=1  
+ NRG=25  
+ NRB=35 
.PARAM  rd1=15k

**** RESUMING bias.cir ****
.END

WARNING(ORPSIM-15223): Library file "D:\Polytech\MA1 2022-2023 ULB\Q2\ELEC-H402 -- Analog Electronics\Labs\Libraries for ELEC-H402\Libraries for ELEC-H402\small_signal.lib" has changed since index file SMALL_SIGNAL.ind was created.

WARNING(ORPSIM-15227): The timestamp changed from Fri Mar 10 08:41:07 2023 to Fri Mar 10 09:41:07 2023.

INFO(ORPSIM-15422): Making new index file SMALL_SIGNAL.ind for library file SMALL_SIGNAL.lib.

Index has 160 entries from 1 file(s).

WARNING(ORPSIM-15223): Library file "D:\Polytech\MA1 2022-2023 ULB\Q2\ELEC-H402 -- Analog Electronics\Labs\Libraries for ELEC-H402\Libraries for ELEC-H402\sedra_lib.lib" has changed since index file SEDRA_LIB.ind was created.

WARNING(ORPSIM-15227): The timestamp changed from Fri Mar 10 08:41:07 2023 to Fri Mar 10 09:41:07 2023.

INFO(ORPSIM-15422): Making new index file SEDRA_LIB.ind for library file SEDRA_LIB.lib.

Index has 13 entries from 1 file(s).

WARNING(ORPSIM-15223): Library file "D:\Polytech\MA1 2022-2023 ULB\Q2\ELEC-H402 -- Analog Electronics\Labs\Libraries for ELEC-H402\Libraries for ELEC-H402\elec-h402.lib" has changed since index file ELEC-H402.ind was created.

WARNING(ORPSIM-15227): The timestamp changed from Fri Mar 10 08:41:07 2023 to Fri Mar 10 09:41:07 2023.

INFO(ORPSIM-15422): Making new index file ELEC-H402.ind for library file ELEC-H402.lib.

Index has 3 entries from 1 file(s).

ERROR(ORPSIM-15113): Model ncg used by M_M1 is undefined

ERROR(ORPSIM-15113): Model ncg used by M_M2 is undefined
